%chk=ch4.chk
%mem=500GB
%nprocshared=128
#p RHF/sto-3g scf=tight formcheck=(mo,basis)

Methane Optimization and Frequency Calculation

0 1
C     0.000000000000      0.000000000000      0.000000000000
H     0.000000000000      0.000000000000      1.088224000000
H     1.025988000000      0.000000000000     -0.362741000000
H    -0.512994000000     -0.888532000000     -0.362741000000
H    -0.512994000000      0.888532000000     -0.362741000000


